tests/data/state_estimation/current-sensor/local-current-sensor/sym_output.json
{
  "version": "1.0",
  "type": "sym_output",
  "is_batch": false,
  "attributes": {},
  "data": {
    "node": [
      {
        "id": 1,
        "energized": 1,
        "u_pu": 1,
        "u": 10000,
        "u_angle": 0,
        "p": -152009.12684220925,
        "q": -114546.21807138032
      },
      {
        "id": 2,
        "energized": 1,
        "u_pu": 1.0065370416981694,
        "u": 10065.370416981694,
        "u_angle": 7.454757222264096e-05,
        "p": 152995.400099888,
        "q": 83581.76857180113
      }
    ],
    "line": [
      {
        "id": 3,
        "energized": 1,
        "p_from": -152009.12684220925,
        "q_from": -114546.21807138032,
        "i_from": 10.989026453358989,
        "s_from": 190335.5214293619,
        "p_to": 152995.400099888,
        "q_to": 83581.76857180113,
        "i_to": 10.0,
        "s_to": 174337.3295921299
      }
    ],
    "source": [
      {
        "id": 4,
        "energized": 1,
        "p": -152009.12684220925,
        "q": -114546.21807138032,
        "i": 10.989026453358989,
        "s": 190335.5214293619,
        "pf": -0.7986377198573704
      }
    ],
    "sym_load": [
      {
        "id": 5,
        "energized": 1,
        "p": -152995.400099888,
        "q": -83581.76857180113,
        "i": 10.0,
        "s": 174337.3295921299,
        "pf": -0.877582560532662
      }
    ],
    "sym_voltage_sensor": [
      {
        "id": 6,
        "energized": 1,
        "u_residual": 0,
        "u_angle_residual": 0
      }
    ],
    "sym_current_sensor": [
      {
        "id": 7,
        "energized": 1,
        "i_residual": 0,
        "i_angle_residual": 0
      }
    ]
  }
}
